!-Generator IDFEditor 1.38a
!-Option SortedOrder

!-NOTE: All comments with '!-' are ignored by the IDFEditor and are generated automatically.
!-      Use '!' comments if they need to be retained when using the IDFEditor.


!-   ===========  ALL OBJECTS IN CLASS: VERSION ===========

! DOE Commercial Reference Building
! Stand-alone Retail, post-1980 construction
! Version 1.3_5.0
! EnergyPlus Version 5.0
! ASHRAE Standards 90.1-1989 and 62-1999
!
! Description:  Single story, Five zone building.
! Form:         Area = 2,294 m2 (24,692 ft2); Number of Stories = 1; Shape = rectangle, Aspect ratio = 1.3
! Envelope:     Envelope thermal properties vary with climate according to ASHRAE Standard 90.1-1989.
!               Opaque constructions: mass walls; built-up flat roof (insulation above deck); slab-on-grade floor
!               Windows: window-to-wall ratio = 7.1%, south wall only (25.4%)
!               Infiltration = 1.5 cfm/ft2 above grade wall area at 0.3 in wc (75 Pa) adjusted to 0.016 in wc (4 Pa).
!                              50% of full value when ventilation system on.
! HVAC:         PSZ-AC, gas furnace; electric unit heater for front entry zone
!               Economizer per 90.1-2004
!
! Int. gains:   W/m2 (W/ft2)    lights           elec plug          gas plug
!               Back            12.55 (1.2       8.07 (0.75)           0
!               Core Retail     36.25 (3.4)      3.23 (0.3)            0
!               Point of Sale   36.25 (3.4)      21.52 (2.0)           0
!               Front Retail    36.25 (3.4)      3.23 (0.3)            0
!               Entry           36.25 (3.4)      0                     0
!
! Detached Shading:               None
! Daylight:                       None
! Natural Ventilation:            None
! Zonal Equipment:                ZoneHVAC:UnitHeater
! Air Primary Loops:              PSZ-AC
! Plant Loops:                    None
! System Equipment Autosize:      Yes
! Purchased Cooling:              None
! Purchased Heating:              None
! Coils:                          Coil:Cooling:DX:SingleSpeed; Coil:Heating:Gas; Coil:Heating:Electric (unit heaters)
! Pumps:                          None
! Boilers:                        None
! Chillers:                       None
!***** NOTICE *****
!***** The Reference Buildings were prepared as an account of work sponsored by an *****
!***** agency of the United States government. Neither the United States *****
!***** government nor any agency thereof, nor any of their employees, makes *****
!***** any warranty, express or implied, or assumes any legal liability or *****
!***** responsibility for the accuracy, completeness, or usefulness of any *****
!***** information, apparatus, product, or process disclosed, or represents *****
!***** that its use would not infringe privately owned rights. Reference *****
!***** herein to any specific commercial product, process, or service by *****
!***** trade name, trademark, manufacturer, or otherwise does not necessarily *****
!***** constitute or imply its endorsement, recommendation, or favoring by *****
!***** the United States government or any agency thereof. The views and *****
!***** opinions of authors expressed herein do not necessarily state or *****
!***** reflect those of the United States government or any agency thereof. *****
!***** Access to and use of the Reference Buildings imposes the following obligations *****
!***** on the user. The user agrees to credit DOE, NREL, PNNL, and LBNL in *****
!***** any publication(s) that that result from the use of Reference Buildings. *****
!***** However, the names of DOE/NREL/PNNL/LBNL may not be used in any *****
!***** advertising or publicity that implies endorsement or promotion of any *****
!***** products, services or commercial entities. *****
! Reference citation for the Commercial Reference Buildings:
! Deru, M.; Field, K.; Studer, D.; Benne, K.; Griffith, B.; Torcellini, P;
! Halverson, M.; Winiarski, D.; Liu, B.; Rosenberg, M.; Huang, J.;
! Yazdanian, M.; Crawley, D. (2010).
! U.S. Department of Energy Commercial Reference Building Models of the National Building Stock.
! Washington, DC: U.S. Department of Energy, Energy Efficiency and
! Renewable Energy, Office of Building Technologies.
! ***GENERAL SIMULATION PARAMETERS***
! Number of Zones: 5
Version,
    6.0;                     !- Version Identifier


!-   ===========  ALL OBJECTS IN CLASS: SIMULATIONCONTROL ===========

SimulationControl,
    No,                      !- Do Zone Sizing Calculation
    No,                      !- Do System Sizing Calculation
    No,                      !- Do Plant Sizing Calculation
    NO,                      !- Run Simulation for Sizing Periods
    YES;                     !- Run Simulation for Weather File Run Periods


!-   ===========  ALL OBJECTS IN CLASS: BUILDING ===========

Building,
    Ref Bldg Stand-alone Retail Post1980_v1.3_5.0,  !- Name
    0.0000,                  !- North Axis {deg}
    City,                    !- Terrain
    0.0400,                  !- Loads Convergence Tolerance Value
    0.2000,                  !- Temperature Convergence Tolerance Value {deltaC}
    FullInteriorAndExterior, !- Solar Distribution
    25;                      !- Maximum Number of Warmup Days


!-   ===========  ALL OBJECTS IN CLASS: SHADOWCALCULATION ===========

ShadowCalculation,
    7,                       !- Calculation Frequency
    15000;                   !- Maximum Figures in Shadow Overlap Calculations


!-   ===========  ALL OBJECTS IN CLASS: SURFACECONVECTIONALGORITHM:INSIDE ===========

! ***MISC SIMULATION PARAMETERS***
SurfaceConvectionAlgorithm:Inside,
    TARP;                    !- Algorithm


!-   ===========  ALL OBJECTS IN CLASS: SURFACECONVECTIONALGORITHM:OUTSIDE ===========

SurfaceConvectionAlgorithm:Outside,
    DOE-2;                   !- Algorithm


!-   ===========  ALL OBJECTS IN CLASS: HEATBALANCEALGORITHM ===========

HeatBalanceAlgorithm,
    ConductionTransferFunction,  !- Algorithm
    200.0000;                !- Surface Temperature Upper Limit


!-   ===========  ALL OBJECTS IN CLASS: ZONEAIRHEATBALANCEALGORITHM ===========

ZoneAirHeatBalanceAlgorithm,
    AnalyticalSolution;      !- Algorithm


!-   ===========  ALL OBJECTS IN CLASS: TIMESTEP ===========

Timestep,
    6;                       !- Number of Timesteps per Hour


!-   ===========  ALL OBJECTS IN CLASS: CONVERGENCELIMITS ===========

ConvergenceLimits,
    2,                       !- Minimum System Timestep {minutes}
    25;                      !- Maximum HVAC Iterations


!-   ===========  ALL OBJECTS IN CLASS: SITE:LOCATION ===========

! WeatherFileName=USA_IL_Chicago-OHare_TMY2.epw
Site:Location,
    USA IL-CHICAGO-OHARE,    !- Name
    41.77,                   !- Latitude {deg}
    -87.75,                  !- Longitude {deg}
    -6.00,                   !- Time Zone {hr}
    190;                     !- Elevation {m}


!-   ===========  ALL OBJECTS IN CLASS: SIZINGPERIOD:DESIGNDAY ===========

! CHICAGO_IL_USA Annual Heating 99.6%, MaxDB=-20.6°C
SizingPeriod:DesignDay,
    CHICAGO Ann Htg 99.6% Condns DB,  !- Name
    -20.6,                   !- Maximum Dry-Bulb Temperature {C}
    0.0,                     !- Daily Temperature Range {deltaC}
    -20.6,                   !- Humidity Indicating Conditions at Maximum Dry-Bulb
    99063.,                  !- Barometric Pressure {Pa}
    4.9,                     !- Wind Speed {m/s}
    270,                     !- Wind Direction {deg}
    0.00,                    !- Sky Clearness
    0,                       !- Rain Indicator
    0,                       !- Snow Indicator
    21,                      !- Day of Month
    1,                       !- Month
    WinterDesignDay,         !- Day Type
    0,                       !- Daylight Saving Time Indicator
    WetBulb;                 !- Humidity Indicating Type

! CHICAGO_IL_USA Annual Cooling (WB=>MDB) .4%, MDB=31.2°C WB=25.5°C
SizingPeriod:DesignDay,
    CHICAGO Ann Clg .4% Condns WB=>MDB,  !- Name
    31.2,                    !- Maximum Dry-Bulb Temperature {C}
    10.7,                    !- Daily Temperature Range {deltaC}
    25.5,                    !- Humidity Indicating Conditions at Maximum Dry-Bulb
    99063.,                  !- Barometric Pressure {Pa}
    5.3,                     !- Wind Speed {m/s}
    230,                     !- Wind Direction {deg}
    1.00,                    !- Sky Clearness
    0,                       !- Rain Indicator
    0,                       !- Snow Indicator
    21,                      !- Day of Month
    7,                       !- Month
    SummerDesignDay,         !- Day Type
    0,                       !- Daylight Saving Time Indicator
    WetBulb;                 !- Humidity Indicating Type


!-   ===========  ALL OBJECTS IN CLASS: RUNPERIOD ===========

RunPeriod,
    ,                        !- Name
    1,                       !- Begin Month
    1,                       !- Begin Day of Month
    12,                      !- End Month
    31,                      !- End Day of Month
    Saturday,                !- Day of Week for Start Day
    No,                      !- Use Weather File Holidays and Special Days
    No,                      !- Use Weather File Daylight Saving Period
    No,                      !- Apply Weekend Holiday Rule
    Yes,                     !- Use Weather File Rain Indicators
    Yes,                     !- Use Weather File Snow Indicators
    1.0000;                  !- Number of Times Runperiod to be Repeated


!-   ===========  ALL OBJECTS IN CLASS: SITE:GROUNDTEMPERATURE:BUILDINGSURFACE ===========

Site:GroundTemperature:BuildingSurface,
    19.527,                  !- January Ground Temperature {C}
    19.502,                  !- February Ground Temperature {C}
    19.536,                  !- March Ground Temperature {C}
    19.598,                  !- April Ground Temperature {C}
    20.002,                  !- May Ground Temperature {C}
    21.640,                  !- June Ground Temperature {C}
    22.225,                  !- July Ground Temperature {C}
    22.375,                  !- August Ground Temperature {C}
    21.449,                  !- September Ground Temperature {C}
    20.121,                  !- October Ground Temperature {C}
    19.802,                  !- November Ground Temperature {C}
    19.633;                  !- December Ground Temperature {C}


!-   ===========  ALL OBJECTS IN CLASS: SITE:WATERMAINSTEMPERATURE ===========

Site:WaterMainsTemperature,
    CORRELATION,             !- Calculation Method
    ,                        !- Temperature Schedule Name
    9.69,                    !- Annual Average Outdoor Air Temperature {C}
    28.10;                   !- Maximum Difference In Monthly Average Outdoor Air Temperatures {deltaC}


!-   ===========  ALL OBJECTS IN CLASS: SCHEDULETYPELIMITS ===========

! ***SCHEDULE TYPES***
ScheduleTypeLimits,
    Any Number;              !- Name

ScheduleTypeLimits,
    Fraction,                !- Name
    0.0,                     !- Lower Limit Value
    1.0,                     !- Upper Limit Value
    CONTINUOUS;              !- Numeric Type

ScheduleTypeLimits,
    Temperature,             !- Name
    -60,                     !- Lower Limit Value
    200,                     !- Upper Limit Value
    CONTINUOUS;              !- Numeric Type

ScheduleTypeLimits,
    On/Off,                  !- Name
    0,                       !- Lower Limit Value
    1,                       !- Upper Limit Value
    DISCRETE;                !- Numeric Type

ScheduleTypeLimits,
    Control Type,            !- Name
    0,                       !- Lower Limit Value
    4,                       !- Upper Limit Value
    DISCRETE;                !- Numeric Type

ScheduleTypeLimits,
    Humidity,                !- Name
    10,                      !- Lower Limit Value
    90,                      !- Upper Limit Value
    CONTINUOUS;              !- Numeric Type

ScheduleTypeLimits,
    Number;                  !- Name


!-   ===========  ALL OBJECTS IN CLASS: SCHEDULE:COMPACT ===========

! ***ALWAYS ON SCHEDULE***
Schedule:Compact,
    ALWAYS_ON,               !- Name
    On/Off,                  !- Schedule Type Limits Name
    Through: 12/31,          !- Field 1
    For: AllDays,            !- Field 2
    Until: 24:00,            !- Field 3
    1;                       !- Field 4

! ***INTERNAL GAINS SCHEDULES***
Schedule:Compact,
    BLDG_EQUIP_SCH,          !- Name
    Fraction,                !- Schedule Type Limits Name
    Through: 12/31,          !- Field 1
    For: Weekdays,           !- Field 2
    Until: 07:00,            !- Field 3
    0.2,                     !- Field 4
    Until: 08:00,            !- Field 5
    0.4,                     !- Field 6
    Until: 09:00,            !- Field 7
    0.7,                     !- Field 8
    Until: 18:00,            !- Field 9
    0.9,                     !- Field 10
    Until: 20:00,            !- Field 11
    0.8,                     !- Field 12
    Until: 21:00,            !- Field 13
    0.7,                     !- Field 14
    Until: 22:00,            !- Field 15
    0.4,                     !- Field 16
    Until: 24:00,            !- Field 17
    0.2,                     !- Field 18
    For: Saturday,           !- Field 19
    Until: 07:00,            !- Field 20
    0.15,                    !- Field 21
    Until: 08:00,            !- Field 22
    0.3,                     !- Field 23
    Until: 09:00,            !- Field 24
    0.5,                     !- Field 25
    Until: 10:00,            !- Field 26
    0.8,                     !- Field 27
    Until: 18:00,            !- Field 28
    0.9,                     !- Field 29
    Until: 19:00,            !- Field 30
    0.7,                     !- Field 31
    Until: 21:00,            !- Field 32
    0.5,                     !- Field 33
    Until: 22:00,            !- Field 34
    0.3,                     !- Field 35
    Until: 24:00,            !- Field 36
    0.15,                    !- Field 37
    For: SummerDesignDay,    !- Field 38
    Until: 24:00,            !- Field 39
    1.0,                     !- Field 40
    For: WinterDesignDay,    !- Field 41
    Until: 24:00,            !- Field 42
    0.0,                     !- Field 43
    For: AllOtherDays,       !- Field 44
    Until: 08:00,            !- Field 45
    0.15,                    !- Field 46
    Until: 10:00,            !- Field 47
    0.3,                     !- Field 48
    Until: 12:00,            !- Field 49
    0.6,                     !- Field 50
    Until: 17:00,            !- Field 51
    0.8,                     !- Field 52
    Until: 18:00,            !- Field 53
    0.6,                     !- Field 54
    Until: 19:00,            !- Field 55
    0.4,                     !- Field 56
    Until: 24:00,            !- Field 57
    0.15;                    !- Field 58

Schedule:Compact,
    BLDG_LIGHT_SCH,          !- Name
    Fraction,                !- Schedule Type Limits Name
    Through: 12/31,          !- Field 1
    For: Weekdays,           !- Field 2
    Until: 07:00,            !- Field 3
    0.05,                    !- Field 4
    Until: 08:00,            !- Field 5
    0.2,                     !- Field 6
    Until: 09:00,            !- Field 7
    0.5,                     !- Field 8
    Until: 18:00,            !- Field 9
    0.9,                     !- Field 10
    Until: 20:00,            !- Field 11
    0.6,                     !- Field 12
    Until: 21:00,            !- Field 13
    0.5,                     !- Field 14
    Until: 22:00,            !- Field 15
    0.2,                     !- Field 16
    Until: 24:00,            !- Field 17
    0.05,                    !- Field 18
    For: Saturday,           !- Field 19
    Until: 07:00,            !- Field 20
    0.05,                    !- Field 21
    Until: 08:00,            !- Field 22
    0.1,                     !- Field 23
    Until: 09:00,            !- Field 24
    0.3,                     !- Field 25
    Until: 10:00,            !- Field 26
    0.6,                     !- Field 27
    Until: 18:00,            !- Field 28
    0.9,                     !- Field 29
    Until: 19:00,            !- Field 30
    0.5,                     !- Field 31
    Until: 21:00,            !- Field 32
    0.3,                     !- Field 33
    Until: 22:00,            !- Field 34
    0.1,                     !- Field 35
    Until: 24:00,            !- Field 36
    0.05,                    !- Field 37
    For: SummerDesignDay,    !- Field 38
    Until: 24:00,            !- Field 39
    1.0,                     !- Field 40
    For: WinterDesignDay,    !- Field 41
    Until: 24:00,            !- Field 42
    0.0,                     !- Field 43
    For: AllOtherDays,       !- Field 44
    Until: 08:00,            !- Field 45
    0.05,                    !- Field 46
    Until: 10:00,            !- Field 47
    0.1,                     !- Field 48
    Until: 12:00,            !- Field 49
    0.4,                     !- Field 50
    Until: 17:00,            !- Field 51
    0.6,                     !- Field 52
    Until: 18:00,            !- Field 53
    0.4,                     !- Field 54
    Until: 19:00,            !- Field 55
    0.2,                     !- Field 56
    Until: 24:00,            !- Field 57
    0.05;                    !- Field 58

Schedule:Compact,
    BLDG_OCC_SCH,            !- Name
    Fraction,                !- Schedule Type Limits Name
    Through: 12/31,          !- Field 1
    For: Weekdays,           !- Field 2
    Until: 07:00,            !- Field 3
    0.0,                     !- Field 4
    Until: 08:00,            !- Field 5
    0.1,                     !- Field 6
    Until: 09:00,            !- Field 7
    0.2,                     !- Field 8
    Until: 11:00,            !- Field 9
    0.5,                     !- Field 10
    Until: 15:00,            !- Field 11
    0.7,                     !- Field 12
    Until: 16:00,            !- Field 13
    0.8,                     !- Field 14
    Until: 17:00,            !- Field 15
    0.7,                     !- Field 16
    Until: 19:00,            !- Field 17
    0.5,                     !- Field 18
    Until: 21:00,            !- Field 19
    0.3,                     !- Field 20
    Until: 24:00,            !- Field 21
    0.0,                     !- Field 22
    For: SummerDesignDay WinterDesignDay,  !- Field 23
    Until: 24:00,            !- Field 24
    1.0,                     !- Field 25
    For: Saturday,           !- Field 26
    Until: 07:00,            !- Field 27
    0.0,                     !- Field 28
    Until: 08:00,            !- Field 29
    0.1,                     !- Field 30
    Until: 09:00,            !- Field 31
    0.2,                     !- Field 32
    Until: 10:00,            !- Field 33
    0.5,                     !- Field 34
    Until: 11:00,            !- Field 35
    0.6,                     !- Field 36
    Until: 17:00,            !- Field 37
    0.8,                     !- Field 38
    Until: 18:00,            !- Field 39
    0.6,                     !- Field 40
    Until: 21:00,            !- Field 41
    0.2,                     !- Field 42
    Until: 22:00,            !- Field 43
    0.1,                     !- Field 44
    Until: 24:00,            !- Field 45
    0.0,                     !- Field 46
    For: AllOtherDays,       !- Field 47
    Until: 09:00,            !- Field 48
    0.0,                     !- Field 49
    Until: 10:00,            !- Field 50
    0.1,                     !- Field 51
    Until: 12:00,            !- Field 52
    0.2,                     !- Field 53
    Until: 17:00,            !- Field 54
    0.4,                     !- Field 55
    Until: 18:00,            !- Field 56
    0.2,                     !- Field 57
    Until: 19:00,            !- Field 58
    0.1,                     !- Field 59
    Until: 24:00,            !- Field 60
    0.0;                     !- Field 61

Schedule:Compact,
    INFIL_HALF_ON_SCH,       !- Name
    Fraction,                !- Schedule Type Limits Name
    Through: 12/31,          !- Field 1
    For: Weekdays SummerDesignDay,  !- Field 2
    Until: 06:00,            !- Field 3
    1.0,                     !- Field 4
    Until: 21:00,            !- Field 5
    0.5,                     !- Field 6
    Until: 24:00,            !- Field 7
    1.0,                     !- Field 8
    For: Saturday,           !- Field 9
    Until: 06:00,            !- Field 10
    1.0,                     !- Field 11
    Until: 22:00,            !- Field 12
    0.5,                     !- Field 13
    Until: 24:00,            !- Field 14
    1.0,                     !- Field 15
    For: WinterDesignDay,    !- Field 16
    Until: 24:00,            !- Field 17
    1.0,                     !- Field 18
    For: AllOtherDays,       !- Field 19
    Until: 08:00,            !- Field 20
    1.0,                     !- Field 21
    Until: 17:00,            !- Field 22
    0.5,                     !- Field 23
    Until: 24:00,            !- Field 24
    1.0;                     !- Field 25

Schedule:Compact,
    INFIL_FRONT_SCH,         !- Name
    Fraction,                !- Schedule Type Limits Name
    Through: 12/31,          !- Field 1
    For: Weekdays SummerDesignDay,  !- Field 2
    Until: 06:00,            !- Field 3
    0.25,                    !- Field 4
    Until: 21:00,            !- Field 5
    1.0,                     !- Field 6
    Until: 24:00,            !- Field 7
    0.25,                    !- Field 8
    For: Saturday,           !- Field 9
    Until: 06:00,            !- Field 10
    0.25,                    !- Field 11
    Until: 22:00,            !- Field 12
    1.0,                     !- Field 13
    Until: 24:00,            !- Field 14
    0.25,                    !- Field 15
    For: WinterDesignDay,    !- Field 16
    Until: 24:00,            !- Field 17
    1.0,                     !- Field 18
    For: AllOtherDays,       !- Field 19
    Until: 08:00,            !- Field 20
    0.25,                    !- Field 21
    Until: 17:00,            !- Field 22
    1.0,                     !- Field 23
    Until: 24:00,            !- Field 24
    0.25;                    !- Field 25

Schedule:Compact,
    WORK_EFF_SCH,            !- Name
    Fraction,                !- Schedule Type Limits Name
    Through: 12/31,          !- Field 1
    For: AllDays,            !- Field 2
    Until: 24:00,            !- Field 3
    0.0;                     !- Field 4

Schedule:Compact,
    ACTIVITY_SCH,            !- Name
    Any Number,              !- Schedule Type Limits Name
    Through: 12/31,          !- Field 1
    For: AllDays,            !- Field 2
    Until: 24:00,            !- Field 3
    120.;                    !- Field 4

Schedule:Compact,
    AIR_VELO_SCH,            !- Name
    Any Number,              !- Schedule Type Limits Name
    Through: 12/31,          !- Field 1
    For: AllDays,            !- Field 2
    Until: 24:00,            !- Field 3
    0.2;                     !- Field 4

Schedule:Compact,
    CLOTHING_SCH,            !- Name
    Any Number,              !- Schedule Type Limits Name
    Through: 04/30,          !- Field 1
    For: AllDays,            !- Field 2
    Until: 24:00,            !- Field 3
    1.0,                     !- Field 4
    Through: 09/30,          !- Field 5
    For: AllDays,            !- Field 6
    Until: 24:00,            !- Field 7
    0.5,                     !- Field 8
    Through: 12/31,          !- Field 9
    For: AllDays,            !- Field 10
    Until: 24:00,            !- Field 11
    1.0;                     !- Field 12

! ***SCHEDULES***
Schedule:Compact,
    CLGSETP_SCH,             !- Name
    Temperature,             !- Schedule Type Limits Name
    Through: 8/1,            !- Field 1
    For: Monday,             !- Field 2
    Until: 02:00,            !- Field 3
    30.0,                    !- Field 4
    Until: 03:00,            !- Field 5
    30,                      !- Field 6
    Until: 05:00,            !- Field 7
    30,                      !- Field 8
    Until: 06:00,            !- Field 9
    30,                      !- Field 10
    Until: 21:00,            !- Field 11
    24.0,                    !- Field 12
    Until: 24:00,            !- Field 13
    30.0,                    !- Field 14
    For: Tuesday SummerDesignDay,  !- Field 15
    Until: 06:00,            !- Field 16
    30.0,                    !- Field 17
    Until: 21:00,            !- Field 18
    24.0,                    !- Field 19
    Until: 24:00,            !- Field 20
    30.0,                    !- Field 21
    For: Wednesday,          !- Field 22
    Until: 04:00,            !- Field 23
    30.0,                    !- Field 24
    Until: 06:00,            !- Field 25
    22.0,                    !- Field 26
    Until: 10:00,            !- Field 27
    24.0,                    !- Field 28
    Until: 12:00,            !- Field 29
    21.0,                    !- Field 30
    Until: 21:00,            !- Field 31
    24.0,                    !- Field 32
    Until: 24:00,            !- Field 33
    30.0,                    !- Field 34
    For: Thursday,           !- Field 35
    Until: 06:00,            !- Field 36
    30.0,                    !- Field 37
    Until: 21:00,            !- Field 38
    24.0,                    !- Field 39
    Until: 24:00,            !- Field 40
    30.0,                    !- Field 41
    For: Friday,             !- Field 42
    Until: 06:00,            !- Field 43
    30.0,                    !- Field 44
    Until: 21:00,            !- Field 45
    24.0,                    !- Field 46
    Until: 24:00,            !- Field 47
    30.0,                    !- Field 48
    For: Saturday,           !- Field 49
    Until: 06:00,            !- Field 50
    30.0,                    !- Field 51
    Until: 22:00,            !- Field 52
    24.0,                    !- Field 53
    Until: 24:00,            !- Field 54
    30.0,                    !- Field 55
    For WinterDesignDay,     !- Field 56
    Until: 24:00,            !- Field 57
    30.0,                    !- Field 58
    For: Sunday Holidays AllOtherDays,  !- Field 59
    Until: 8:00,             !- Field 60
    30.0,                    !- Field 61
    Until: 19:00,            !- Field 62
    24.0,                    !- Field 63
    Until: 24:00,            !- Field 64
    30.0,                    !- Field 65
    Through: 12/31,          !- Field 66
    For: Monday,             !- Field 67
    Until: 02:00,            !- Field 68
    30.0,                    !- Field 69
    Until: 03:00,            !- Field 70
    30.0,                    !- Field 71
    Until: 05:00,            !- Field 72
    30.0,                    !- Field 73
    Until: 06:00,            !- Field 74
    30.0,                    !- Field 75
    Until: 21:00,            !- Field 76
    24.0,                    !- Field 77
    Until: 24:00,            !- Field 78
    30.0,                    !- Field 79
    For: Tuesday SummerDesignDay,  !- Field 80
    Until: 06:00,            !- Field 81
    30.0,                    !- Field 82
    Until: 21:00,            !- Field 83
    24.0,                    !- Field 84
    Until: 24:00,            !- Field 85
    30.0,                    !- Field 86
    For: Wednesday,          !- Field 87
    Until: 04:00,            !- Field 88
    30.0,                    !- Field 89
    Until: 06:00,            !- Field 90
    30.0,                    !- Field 91
    Until: 21:00,            !- Field 92
    24.0,                    !- Field 93
    Until: 24:00,            !- Field 94
    30.0,                    !- Field 95
    For: Thursday,           !- Field 96
    Until: 06:00,            !- Field 97
    30.0,                    !- Field 98
    Until: 21:00,            !- Field 99
    24.0,                    !- Field 100
    Until: 24:00,            !- Field 101
    30.0,                    !- Field 102
    For: Friday,             !- Field 103
    Until: 06:00,            !- Field 104
    30.0,                    !- Field 105
    Until: 21:00,            !- Field 106
    24.0,                    !- Field 107
    Until: 24:00,            !- Field 108
    30.0,                    !- Field 109
    For: Saturday,           !- Field 110
    Until: 06:00,            !- Field 111
    30.0,                    !- Field 112
    Until: 22:00,            !- Field 113
    24.0,                    !- Field 114
    Until: 24:00,            !- Field 115
    30.0,                    !- Field 116
    For WinterDesignDay,     !- Field 117
    Until: 24:00,            !- Field 118
    30.0,                    !- Field 119
    For: Sunday Holidays AllOtherDays,  !- Field 120
    Until: 8:00,             !- Field 121
    30.0,                    !- Field 122
    Until: 19:00,            !- Field 123
    24.0,                    !- Field 124
    Until: 24:00,            !- Field 125
    30.0;                    !- Field 126

Schedule:Compact,
    Dual Zone Control Type Sched,  !- Name
    Control Type,            !- Schedule Type Limits Name
    Through: 12/31,          !- Field 1